Version 4
SHEET 1 2008 1332
WIRE 1392 -880 240 -880
WIRE 1568 -880 1392 -880
WIRE 1664 -880 1568 -880
WIRE 1792 -880 1664 -880
WIRE 1216 -720 720 -720
WIRE -784 -176 -928 -176
WIRE -592 -176 -784 -176
WIRE -480 -176 -592 -176
WIRE 240 -176 240 -880
WIRE 240 -176 -480 -176
WIRE 720 -160 720 -208
WIRE 1888 -160 720 -160
WIRE -928 -144 -928 -176
WIRE -784 -144 -784 -176
WIRE -592 -144 -592 -176
WIRE 720 -128 720 -160
WIRE -480 -112 -480 -176
WIRE 240 -64 240 -176
WIRE -928 -48 -928 -64
WIRE -784 -48 -784 -80
WIRE -592 -48 -592 -80
WIRE 720 -32 720 -48
WIRE 832 -32 720 -32
WIRE 1392 -32 1392 -880
WIRE 1392 -32 896 -32
WIRE 720 -16 720 -32
WIRE -480 0 -480 -32
WIRE 64 0 -480 0
WIRE 448 0 416 0
WIRE 528 0 512 0
WIRE -480 16 -480 0
WIRE 1024 32 992 32
WIRE 1392 32 1392 -32
WIRE 1392 32 1104 32
WIRE 1568 48 1568 -880
WIRE 1664 48 1664 -880
WIRE 1792 48 1792 -880
WIRE -288 64 -336 64
WIRE -48 64 -128 64
WIRE 64 64 -48 64
WIRE 480 64 416 64
WIRE 672 64 480 64
WIRE -336 80 -336 64
WIRE 992 80 992 32
WIRE 992 80 976 80
WIRE 1136 80 992 80
WIRE -480 112 -480 96
WIRE 1216 112 1216 -720
WIRE -64 128 -96 128
WIRE 64 128 16 128
WIRE 720 128 720 80
WIRE 720 128 416 128
WIRE 912 128 832 128
WIRE 720 144 720 128
WIRE 1568 144 1568 128
WIRE -256 192 -320 192
WIRE -96 192 -96 128
WIRE -96 192 -176 192
WIRE 64 192 -96 192
WIRE 1136 192 1136 80
WIRE 1168 192 1136 192
WIRE 1664 192 1664 128
WIRE 1664 192 1632 192
WIRE 1680 192 1664 192
WIRE 1792 192 1792 112
WIRE 1792 192 1760 192
WIRE 1888 192 1888 -160
WIRE 1888 192 1792 192
WIRE 1216 224 1216 208
WIRE 1216 224 1072 224
WIRE 720 240 720 224
WIRE -256 256 -320 256
WIRE -128 256 -192 256
WIRE 64 256 -48 256
WIRE 624 256 416 256
WIRE 1216 256 1216 224
WIRE 1568 256 1568 240
WIRE 1568 256 1472 256
WIRE -16 320 -32 320
WIRE 64 320 48 320
WIRE 1104 320 416 320
WIRE 1568 368 1568 336
WIRE -112 384 -144 384
WIRE 64 384 -32 384
WIRE 1072 384 1072 224
WIRE 1072 384 416 384
WIRE 1104 384 1104 320
WIRE 1216 384 1216 336
WIRE 1216 384 1104 384
WIRE 1216 400 1216 384
WIRE 1392 400 1392 32
WIRE 1392 400 1216 400
WIRE -240 448 -256 448
WIRE 64 448 -160 448
WIRE 480 448 416 448
WIRE 832 448 832 128
WIRE 832 448 480 448
WIRE 624 496 624 256
WIRE 1472 496 1472 256
WIRE 1472 496 624 496
WIRE 240 528 240 512
FLAG 528 0 0
FLAG -928 -48 0
FLAG -480 112 0
FLAG -32 320 0
FLAG -144 384 0
FLAG 240 528 0
FLAG -256 448 0
FLAG -928 -176 IN
FLAG -320 192 0
FLAG -592 -48 0
FLAG -48 64 /OPENLED
FLAG -320 256 0
FLAG 480 448 PWMout
FLAG 480 64 GATE
FLAG -784 -48 0
FLAG 720 240 0
FLAG 976 256 0
FLAG 1568 368 0
FLAG -336 80 0
SYMBOL cap 448 16 R270
WINDOW 0 32 32 VTop 2
WINDOW 3 0 32 VBottom 2
SYMATTR InstName C6
SYMATTR Value 4.7µ
SYMATTR SpiceLine V=25
SYMBOL ind 704 -144 R0
SYMATTR InstName L1
SYMATTR Value 33µ
SYMATTR SpiceLine Rpar=2K
SYMBOL voltage -928 -160 R0
WINDOW 3 27 90 Left 2
WINDOW 123 0 0 Left 2
WINDOW 39 27 118 Left 2
SYMATTR Value 80
SYMATTR SpiceLine Rser=4
SYMATTR InstName V1
SYMBOL res -496 -128 R0
SYMATTR InstName R5
SYMATTR Value 953k
SYMATTR SpiceLine tol=1
SYMBOL res -496 0 R0
SYMATTR InstName R6
SYMATTR Value 201k
SYMATTR SpiceLine tol=1
SYMBOL cap -192 240 R90
WINDOW 0 0 32 VBottom 2
WINDOW 3 29 32 VTop 2
WINDOW 39 51 32 VTop 2
SYMATTR InstName C8
SYMATTR Value 1000p
SYMBOL cap 48 304 R90
WINDOW 0 0 32 VBottom 2
WINDOW 3 32 32 VTop 2
SYMATTR InstName C7
SYMATTR Value .05µ
SYMBOL res -16 368 R90
WINDOW 0 0 56 VBottom 2
WINDOW 3 32 56 VTop 2
SYMATTR InstName R7
SYMATTR Value 28.7K
SYMBOL voltage -144 448 R90
WINDOW 0 -32 56 VBottom 2
WINDOW 3 32 56 VTop 2
WINDOW 123 0 0 Left 2
WINDOW 39 0 0 Left 2
SYMATTR InstName V2
SYMATTR Value PULSE(0 3.3 0 2u 2u .4m 1m)
SYMBOL PowerProducts\\LT3756-2 240 224 R0
SYMATTR InstName U1
SYMBOL res 32 112 R90
WINDOW 0 0 56 VBottom 2
WINDOW 3 32 56 VTop 2
SYMATTR InstName R9
SYMATTR Value 16.9K
SYMBOL res -272 208 R270
WINDOW 0 32 56 VTop 2
WINDOW 3 0 56 VBottom 2
SYMATTR InstName R10
SYMATTR Value 100K
SYMBOL cap -608 -144 R0
SYMATTR InstName C4
SYMATTR Value 4.7µ
SYMATTR SpiceLine V=100
SYMBOL LED 704 -720 R0
SYMATTR InstName D3
SYMATTR Value NSCW100
SYMATTR Description Diode
SYMATTR Type diode
SYMBOL LED 704 -656 R0
SYMATTR InstName D2
SYMATTR Value NSCW100
SYMATTR Description Diode
SYMATTR Type diode
SYMBOL LED 704 -592 R0
SYMATTR InstName D4
SYMATTR Value NSCW100
SYMATTR Description Diode
SYMATTR Type diode
SYMBOL LED 704 -528 R0
SYMATTR InstName D5
SYMATTR Value NSCW100
SYMATTR Description Diode
SYMATTR Type diode
SYMBOL LED 704 -464 R0
SYMATTR InstName D6
SYMATTR Value NSCW100
SYMATTR Description Diode
SYMATTR Type diode
SYMBOL LED 704 -400 R0
SYMATTR InstName D7
SYMATTR Value NSCW100
SYMATTR Description Diode
SYMATTR Type diode
SYMBOL LED 704 -336 R0
SYMATTR InstName D8
SYMATTR Value NSCW100
SYMATTR Description Diode
SYMATTR Type diode
SYMBOL LED 704 -272 R0
SYMATTR InstName D9
SYMATTR Value NSCW100
SYMATTR Description Diode
SYMATTR Type diode
SYMBOL res -32 240 R90
WINDOW 0 0 56 VBottom 2
WINDOW 3 32 56 VTop 2
SYMATTR InstName R12
SYMATTR Value 47k
SYMATTR SpiceLine tol=5
SYMBOL cap -800 -144 R0
SYMATTR InstName C1
SYMATTR Value 15µF
SYMATTR SpiceLine V=100
SYMBOL nmos 672 -16 R0
SYMATTR InstName M1
SYMATTR Value Si3440DV
SYMBOL res 704 128 R0
SYMATTR InstName R1
SYMATTR Value .1
SYMATTR SpiceLine tol=1
SYMBOL schottky 832 -16 R270
WINDOW 0 32 32 VTop 2
WINDOW 3 0 32 VBottom 2
SYMATTR InstName D1
SYMATTR Value PDS5100
SYMATTR Description Diode
SYMATTR Type diode
SYMBOL npn 912 80 R0
SYMATTR InstName Q1
SYMBOL res 960 160 R0
SYMATTR InstName R2
SYMATTR Value 1K
SYMBOL pmos 1168 112 R0
SYMATTR InstName M2
SYMATTR Value Si7469DP
SYMBOL res 1200 240 R0
SYMATTR InstName R3
SYMATTR Value 5
SYMATTR SpiceLine tol=1
SYMBOL res 1120 16 R90
WINDOW 0 0 56 VBottom 2
WINDOW 3 32 56 VTop 2
SYMATTR InstName R4
SYMATTR Value 1.5k
SYMATTR SpiceLine tol=5
SYMBOL pnp 1632 240 R180
SYMATTR InstName Q2
SYMATTR Value 2N5401
SYMBOL res 1552 240 R0
SYMATTR InstName R8
SYMATTR Value 11k
SYMATTR SpiceLine tol=5
SYMBOL res 1552 32 R0
SYMATTR InstName R11
SYMATTR Value 200K
SYMATTR SpiceLine tol=5
SYMBOL res 1648 32 R0
SYMATTR InstName R13
SYMATTR Value 200K
SYMATTR SpiceLine tol=5
SYMBOL res 1776 176 R90
WINDOW 0 0 56 VBottom 2
WINDOW 3 32 56 VTop 2
SYMATTR InstName R14
SYMATTR Value 200K
SYMATTR SpiceLine tol=5
SYMBOL cap 1776 48 R0
SYMATTR InstName C3
SYMATTR Value 15µF
SYMATTR SpiceLine V=100
SYMBOL res -112 48 R90
WINDOW 0 0 56 VBottom 2
WINDOW 3 32 56 VTop 2
SYMATTR InstName R15
SYMATTR Value 100k
SYMATTR SpiceLine tol=5
SYMBOL voltage -192 64 R90
WINDOW 0 -32 56 VBottom 2
WINDOW 3 32 56 VTop 2
WINDOW 123 0 0 Left 2
WINDOW 39 0 0 Left 2
SYMATTR InstName V3
SYMATTR Value 3.3
TEXT 72 648 Left 2 !.tran 50m startup
TEXT -176 176 Left 2 ;NTC
CIRCLE Normal -112 240 -304 144 2
