Version 4
SHEET 1 1624 1332
WIRE -688 -176 -816 -176
WIRE -592 -176 -688 -176
WIRE -480 -176 -592 -176
WIRE 240 -176 -480 -176
WIRE 384 -176 240 -176
WIRE 608 -176 464 -176
WIRE 656 -176 608 -176
WIRE 752 -176 720 -176
WIRE 848 -176 752 -176
WIRE 976 -176 848 -176
WIRE 1152 -176 1104 -176
WIRE 1328 -176 1280 -176
WIRE 1488 -176 1456 -176
WIRE 848 -160 848 -176
WIRE -816 -144 -816 -176
WIRE -688 -144 -688 -176
WIRE -592 -144 -592 -176
WIRE -480 -112 -480 -176
WIRE -208 -112 -272 -112
WIRE 432 -112 -48 -112
WIRE -272 -96 -272 -112
WIRE 848 -80 848 -96
WIRE 240 -64 240 -176
WIRE -816 -48 -816 -64
WIRE -688 -48 -688 -80
WIRE -592 -48 -592 -80
WIRE 608 -16 608 -176
WIRE -480 0 -480 -32
WIRE 64 0 -480 0
WIRE 432 0 432 -112
WIRE 432 0 416 0
WIRE 448 0 432 0
WIRE 528 0 512 0
WIRE -480 16 -480 0
WIRE -128 64 -128 -112
WIRE -48 64 -128 64
WIRE 64 64 -48 64
WIRE 480 64 416 64
WIRE 560 64 480 64
WIRE 752 64 752 -176
WIRE 976 96 976 -176
WIRE 976 96 880 96
WIRE -480 112 -480 96
WIRE 976 112 976 96
WIRE -64 128 -96 128
WIRE 64 128 16 128
WIRE 608 128 608 80
WIRE 608 128 416 128
WIRE 608 144 608 128
WIRE 752 160 752 144
WIRE 752 160 704 160
WIRE 752 176 752 160
WIRE -256 192 -320 192
WIRE -96 192 -96 128
WIRE -96 192 -176 192
WIRE 64 192 -96 192
WIRE 976 208 976 192
WIRE 976 208 912 208
WIRE -256 256 -320 256
WIRE -128 256 -192 256
WIRE 64 256 -48 256
WIRE 704 256 704 160
WIRE 704 256 416 256
WIRE 976 256 976 208
WIRE 1104 256 1104 -176
WIRE 1104 256 976 256
WIRE 752 272 752 256
WIRE -16 320 -32 320
WIRE 64 320 48 320
WIRE 880 320 880 96
WIRE 880 320 416 320
WIRE 1104 320 976 320
WIRE 1280 336 1280 -176
WIRE 1280 336 1152 336
WIRE 1456 336 1456 -176
WIRE 1456 336 1328 336
WIRE 976 368 976 320
WIRE 1104 368 1104 320
WIRE 1488 368 1488 336
WIRE 1488 368 1104 368
WIRE -112 384 -144 384
WIRE 64 384 -32 384
WIRE 912 384 912 208
WIRE 912 384 416 384
WIRE -240 448 -256 448
WIRE 64 448 -160 448
WIRE 496 448 416 448
WIRE 928 448 496 448
WIRE 976 480 976 464
WIRE 240 528 240 512
FLAG 528 0 0
FLAG 608 224 0
FLAG 752 272 0
FLAG 848 -80 0
FLAG -816 -48 0
FLAG -480 112 0
FLAG 976 480 0
FLAG -32 320 0
FLAG -144 384 0
FLAG 240 528 0
FLAG -256 448 0
FLAG -816 -176 IN
FLAG -320 192 0
FLAG -592 -48 0
FLAG -688 -48 0
FLAG -272 -96 0
FLAG 976 -176 out
FLAG -48 64 /OPENLED
FLAG -320 256 0
FLAG 496 448 PWMout
FLAG 480 64 GATE
SYMBOL cap 448 16 R270
WINDOW 0 32 32 VTop 2
WINDOW 3 0 32 VBottom 2
SYMATTR InstName C1
SYMATTR Value 4.7µ
SYMATTR SpiceLine V=25
SYMBOL nmos 560 -16 R0
SYMATTR InstName Q1
SYMATTR Value IRFR120Z
SYMBOL res 592 128 R0
SYMATTR InstName R1
SYMATTR Value .018
SYMBOL ind 368 -160 R270
WINDOW 0 32 56 VTop 2
WINDOW 3 5 56 VBottom 2
SYMATTR InstName L1
SYMATTR Value 22µ
SYMATTR SpiceLine Rpar=2K
SYMBOL res 736 48 R0
SYMATTR InstName R2
SYMATTR Value 953k
SYMATTR SpiceLine tol=1
SYMBOL res 736 160 R0
SYMATTR InstName R3
SYMATTR Value 12.4k
SYMATTR SpiceLine tol=1
SYMBOL schottky 656 -160 R270
WINDOW 0 32 32 VTop 2
WINDOW 3 0 32 VBottom 2
SYMATTR InstName D1
SYMATTR Value PDS5100
SYMATTR Description Diode
SYMATTR Type diode
SYMBOL res 960 96 R0
SYMATTR InstName R4
SYMATTR Value 4
SYMATTR SpiceLine tol=1
SYMBOL cap 832 -160 R0
SYMATTR InstName C2
SYMATTR Value 4.7µ
SYMATTR SpiceLine Rser=3m
SYMBOL voltage -816 -160 R0
WINDOW 3 27 90 Left 2
WINDOW 123 0 0 Left 2
WINDOW 39 27 118 Left 2
SYMATTR Value 12
SYMATTR SpiceLine Rser=4
SYMATTR InstName V1
SYMBOL res -496 -128 R0
SYMATTR InstName R5
SYMATTR Value 953k
SYMATTR SpiceLine tol=1
SYMBOL res -496 0 R0
SYMATTR InstName R6
SYMATTR Value 201k
SYMATTR SpiceLine tol=1
SYMBOL cap -192 240 R90
WINDOW 0 0 32 VBottom 2
WINDOW 3 29 32 VTop 2
WINDOW 39 51 32 VTop 2
SYMATTR InstName C3
SYMATTR Value 1000p
SYMBOL nmos 928 368 R0
SYMATTR InstName Q2
SYMATTR Value IRFR120Z
SYMBOL cap 48 304 R90
WINDOW 0 0 32 VBottom 2
WINDOW 3 32 32 VTop 2
SYMATTR InstName C4
SYMATTR Value .3µ
SYMBOL res -16 368 R90
WINDOW 0 0 56 VBottom 2
WINDOW 3 32 56 VTop 2
SYMATTR InstName R7
SYMATTR Value 28.7K
SYMBOL voltage -144 448 R90
WINDOW 0 -32 56 VBottom 2
WINDOW 3 32 56 VTop 2
WINDOW 123 0 0 Left 2
WINDOW 39 0 0 Left 2
SYMATTR InstName V2
SYMATTR Value PULSE(0 3.3 0 1u 1u 1ms 2ms)
SYMBOL PowerProducts\\LT3756-2 240 224 R0
SYMATTR InstName U1
SYMBOL res -32 -128 R90
WINDOW 0 0 56 VBottom 2
WINDOW 3 32 56 VTop 2
SYMATTR InstName R8
SYMATTR Value 100k
SYMATTR SpiceLine tol=5
SYMBOL res 32 112 R90
WINDOW 0 0 56 VBottom 2
WINDOW 3 32 56 VTop 2
SYMATTR InstName R9
SYMATTR Value 16.9K
SYMBOL res -272 208 R270
WINDOW 0 32 56 VTop 2
WINDOW 3 0 56 VBottom 2
SYMATTR InstName R10
SYMATTR Value 100K
SYMBOL cap -608 -144 R0
SYMATTR InstName C5
SYMATTR Value 4.7µ
SYMATTR SpiceLine V=25
SYMBOL LED 1136 -176 R0
SYMATTR InstName D3
SYMATTR Value NSCW100
SYMATTR Description Diode
SYMATTR Type diode
SYMBOL LED 1136 -112 R0
SYMATTR InstName D2
SYMATTR Value NSCW100
SYMATTR Description Diode
SYMATTR Type diode
SYMBOL LED 1136 -48 R0
SYMATTR InstName D4
SYMATTR Value NSCW100
SYMATTR Description Diode
SYMATTR Type diode
SYMBOL LED 1136 16 R0
SYMATTR InstName D5
SYMATTR Value NSCW100
SYMATTR Description Diode
SYMATTR Type diode
SYMBOL LED 1136 80 R0
SYMATTR InstName D6
SYMATTR Value NSCW100
SYMATTR Description Diode
SYMATTR Type diode
SYMBOL LED 1136 144 R0
SYMATTR InstName D7
SYMATTR Value NSCW100
SYMATTR Description Diode
SYMATTR Type diode
SYMBOL LED 1136 208 R0
SYMATTR InstName D8
SYMATTR Value NSCW100
SYMATTR Description Diode
SYMATTR Type diode
SYMBOL LED 1136 272 R0
SYMATTR InstName D9
SYMATTR Value NSCW100
SYMATTR Description Diode
SYMATTR Type diode
SYMBOL LED 1312 -176 R0
SYMATTR InstName D10
SYMATTR Value NSCW100
SYMATTR Description Diode
SYMATTR Type diode
SYMBOL LED 1312 -112 R0
SYMATTR InstName D11
SYMATTR Value NSCW100
SYMATTR Description Diode
SYMATTR Type diode
SYMBOL LED 1312 -48 R0
SYMATTR InstName D12
SYMATTR Value NSCW100
SYMATTR Description Diode
SYMATTR Type diode
SYMBOL LED 1312 16 R0
SYMATTR InstName D13
SYMATTR Value NSCW100
SYMATTR Description Diode
SYMATTR Type diode
SYMBOL LED 1312 80 R0
SYMATTR InstName D14
SYMATTR Value NSCW100
SYMATTR Description Diode
SYMATTR Type diode
SYMBOL LED 1312 144 R0
SYMATTR InstName D15
SYMATTR Value NSCW100
SYMATTR Description Diode
SYMATTR Type diode
SYMBOL LED 1312 208 R0
SYMATTR InstName D16
SYMATTR Value NSCW100
SYMATTR Description Diode
SYMATTR Type diode
SYMBOL LED 1312 272 R0
SYMATTR InstName D17
SYMATTR Value NSCW100
SYMATTR Description Diode
SYMATTR Type diode
SYMBOL LED 1472 -176 R0
SYMATTR InstName D18
SYMATTR Value NSCW100
SYMATTR Description Diode
SYMATTR Type diode
SYMBOL LED 1472 -112 R0
SYMATTR InstName D19
SYMATTR Value NSCW100
SYMATTR Description Diode
SYMATTR Type diode
SYMBOL LED 1472 -48 R0
SYMATTR InstName D20
SYMATTR Value NSCW100
SYMATTR Description Diode
SYMATTR Type diode
SYMBOL LED 1472 16 R0
SYMATTR InstName D21
SYMATTR Value NSCW100
SYMATTR Description Diode
SYMATTR Type diode
SYMBOL LED 1472 80 R0
SYMATTR InstName D22
SYMATTR Value NSCW100
SYMATTR Description Diode
SYMATTR Type diode
SYMBOL LED 1472 144 R0
SYMATTR InstName D23
SYMATTR Value NSCW100
SYMATTR Description Diode
SYMATTR Type diode
SYMBOL LED 1472 208 R0
SYMATTR InstName D24
SYMATTR Value NSCW100
SYMATTR Description Diode
SYMATTR Type diode
SYMBOL LED 1472 272 R0
SYMATTR InstName D25
SYMATTR Value NSCW100
SYMATTR Description Diode
SYMATTR Type diode
SYMBOL polcap -704 -144 R0
WINDOW 3 24 56 Left 2
SYMATTR Value 220µ
SYMATTR InstName C6
SYMATTR Description Capacitor
SYMATTR Type cap
SYMATTR SpiceLine V=25 Irms=555m Rser=0.13 Lser=0 mfg="United Chemi-Con" pn="LXF25VB221M8X15LL" type="Al electrolytic"
SYMBOL res -112 -128 R90
WINDOW 0 0 56 VBottom 2
WINDOW 3 32 56 VTop 2
SYMATTR InstName R11
SYMATTR Value 75k
SYMATTR SpiceLine tol=5
SYMBOL res -32 240 R90
WINDOW 0 0 56 VBottom 2
WINDOW 3 32 56 VTop 2
SYMATTR InstName R12
SYMATTR Value 10k
SYMATTR SpiceLine tol=5
TEXT 712 520 Left 2 !.tran 50m startup
TEXT -176 176 Left 2 ;NTC
CIRCLE Normal -112 240 -304 144 2
